version 2
run Exponencial-0-20110504-22:35:06-4496
attr configname Exponencial
attr datetime 20110504-22:35:06
attr experiment Exponencial
attr inifile omnetpp.ini
attr iterationvars ""
attr iterationvars2 $repetition=0
attr measurement ""
attr network Network2
attr processid 4496
attr repetition 0
attr replication #0
attr resultdir results
attr runnumber 0
attr seedset 0

statistic Network2.receiver1 	"interarrival times"
field count 1033
field mean 52.82284607938
field stddev 32.958962339266
field sum 54566
field sqrsum 4003386
field min 0
field max 284
bin	-INF	0
bin	-124	0
bin	-107.46666666667	0
bin	-90.933333333333	0
bin	-74.4	0
bin	-57.866666666667	0
bin	-41.333333333333	0
bin	-24.8	0
bin	-8.2666666666667	1
bin	8.2666666666667	0
bin	24.8	615
bin	41.333333333333	42
bin	57.866666666667	217
bin	74.4	30
bin	90.933333333333	63
bin	107.46666666667	15
bin	124	24
bin	140.53333333333	7
bin	157.06666666667	7
bin	173.6	4
bin	190.13333333333	2
bin	206.66666666667	2
bin	223.2	2
bin	239.73333333333	1
bin	256.26666666667	0
bin	272.8	1
bin	289.33333333333	0
bin	305.86666666667	0
bin	322.4	0
bin	338.93333333333	0
bin	355.46666666667	0
bin	372	0
statistic Network2.receiver2 	"interarrival times"
field count 588
field mean 92.862244897959
field stddev 73.918918720898
field sum 54603
field sqrsum 8277929
field min 30
field max 518
bin	-INF	0
bin	-184	0
bin	-155.46666666667	0
bin	-126.93333333333	0
bin	-98.4	0
bin	-69.866666666667	0
bin	-41.333333333333	0
bin	-12.8	0
bin	15.733333333333	206
bin	44.266666666667	118
bin	72.8	74
bin	101.33333333333	54
bin	129.86666666667	48
bin	158.4	27
bin	186.93333333333	19
bin	215.46666666667	17
bin	244	7
bin	272.53333333333	2
bin	301.06666666667	4
bin	329.6	7
bin	358.13333333333	1
bin	386.66666666667	0
bin	415.2	2
bin	443.73333333333	1
bin	472.26666666667	0
bin	500.8	1
bin	529.33333333333	0
bin	557.86666666667	0
bin	586.4	0
bin	614.93333333333	0
bin	643.46666666667	0
bin	672	0
