version 2
run Poisson-0-20110505-01:09:04-2456
attr configname Poisson
attr datetime 20110505-01:09:04
attr experiment Poisson
attr inifile omnetpp.ini
attr iterationvars ""
attr iterationvars2 $repetition=0
attr measurement ""
attr network Network1
attr processid 2456
attr repetition 0
attr replication #0
attr resultdir results
attr runnumber 0
attr seedset 0

statistic Network1.admissionRejected 	"interarrival times"
field count 31
field mean 100.1935483871
field stddev 80.765677262411
field sum 3106
field sqrsum 506894
field min 32
field max 359
bin	-INF	0
bin	-131.5	0
bin	-109.7	0
bin	-87.9	0
bin	-66.1	0
bin	-44.3	0
bin	-22.5	0
bin	-0.7	0
bin	21.1	10
bin	42.9	0
bin	64.7	8
bin	86.5	4
bin	108.3	1
bin	130.1	4
bin	151.9	0
bin	173.7	0
bin	195.5	2
bin	217.3	0
bin	239.1	0
bin	260.9	0
bin	282.7	0
bin	304.5	1
bin	326.3	0
bin	348.1	1
bin	369.9	0
bin	391.7	0
bin	413.5	0
bin	435.3	0
bin	457.1	0
bin	478.9	0
bin	500.7	0
bin	522.5	0
statistic Network1.shaperRejected 	"interarrival times"
field count 0
field mean 0
field stddev -1.#IND
field sum 0
field sqrsum 0
field min 0
field max 0
bin	-INF	0
bin	-0.5	0
bin	-0.46666666666667	0
bin	-0.43333333333333	0
bin	-0.4	0
bin	-0.36666666666667	0
bin	-0.33333333333333	0
bin	-0.3	0
bin	-0.26666666666667	0
bin	-0.23333333333333	0
bin	-0.2	0
bin	-0.16666666666667	0
bin	-0.13333333333333	0
bin	-0.1	0
bin	-0.066666666666667	0
bin	-0.033333333333333	0
bin	-6.9388939039072e-018	0
bin	0.033333333333333	0
bin	0.066666666666667	0
bin	0.1	0
bin	0.13333333333333	0
bin	0.16666666666667	0
bin	0.2	0
bin	0.23333333333333	0
bin	0.26666666666667	0
bin	0.3	0
bin	0.33333333333333	0
bin	0.36666666666667	0
bin	0.4	0
bin	0.43333333333333	0
bin	0.46666666666667	0
bin	0.5	0
statistic Network1.destination1 	"interarrival times"
field count 15
field mean 197.93333333333
field stddev 75.847089280875
field sum 2969
field sqrsum 668203
field min 0
field max 311
bin	-INF	0
bin	-155.5	0
bin	-134.76666666667	0
bin	-114.03333333333	0
bin	-93.3	0
bin	-72.566666666667	0
bin	-51.833333333333	0
bin	-31.1	0
bin	-10.366666666667	1
bin	10.366666666667	0
bin	31.1	0
bin	51.833333333333	0
bin	72.566666666667	0
bin	93.3	0
bin	114.03333333333	0
bin	134.76666666667	3
bin	155.5	1
bin	176.23333333333	1
bin	196.96666666667	5
bin	217.7	0
bin	238.43333333333	1
bin	259.16666666667	0
bin	279.9	2
bin	300.63333333333	1
bin	321.36666666667	0
bin	342.1	0
bin	362.83333333333	0
bin	383.56666666667	0
bin	404.3	0
bin	425.03333333333	0
bin	445.76666666667	0
bin	466.5	0
statistic Network1.destination2 	"interarrival times"
field count 15
field mean 202.53333333333
field stddev 75.678706824751
field sum 3038
field sqrsum 695478
field min 39
field max 349
bin	-INF	0
bin	-116	0
bin	-95.333333333333	0
bin	-74.666666666667	0
bin	-54	0
bin	-33.333333333333	0
bin	-12.666666666667	0
bin	8	0
bin	28.666666666667	1
bin	49.333333333333	0
bin	70	0
bin	90.666666666667	0
bin	111.33333333333	0
bin	132	2
bin	152.66666666667	0
bin	173.33333333333	5
bin	194	3
bin	214.66666666667	0
bin	235.33333333333	1
bin	256	0
bin	276.66666666667	1
bin	297.33333333333	1
bin	318	0
bin	338.66666666667	1
bin	359.33333333333	0
bin	380	0
bin	400.66666666667	0
bin	421.33333333333	0
bin	442	0
bin	462.66666666667	0
bin	483.33333333333	0
bin	504	0
statistic Network1.destination3 	"interarrival times"
field count 15
field mean 209.4
field stddev 74.827229573961
field sum 3141
field sqrsum 736113
field min 111
field max 382
bin	-INF	0
bin	-24.5	0
bin	-6.4333333333333	0
bin	11.633333333333	0
bin	29.7	0
bin	47.766666666667	0
bin	65.833333333333	0
bin	83.9	0
bin	101.96666666667	1
bin	120.03333333333	0
bin	138.1	3
bin	156.16666666667	0
bin	174.23333333333	4
bin	192.3	2
bin	210.36666666667	0
bin	228.43333333333	2
bin	246.5	1
bin	264.56666666667	0
bin	282.63333333333	0
bin	300.7	0
bin	318.76666666667	0
bin	336.83333333333	1
bin	354.9	0
bin	372.96666666667	1
bin	391.03333333333	0
bin	409.1	0
bin	427.16666666667	0
bin	445.23333333333	0
bin	463.3	0
bin	481.36666666667	0
bin	499.43333333333	0
bin	517.5	0
statistic Network1.destination4 	"interarrival times"
field count 15
field mean 211.46666666667
field stddev 69.849702593361
field sum 3172
field sqrsum 739078
field min 139
field max 376
bin	-INF	0
bin	20.5	0
bin	36.3	0
bin	52.1	0
bin	67.9	0
bin	83.7	0
bin	99.5	0
bin	115.3	0
bin	131.1	3
bin	146.9	0
bin	162.7	3
bin	178.5	2
bin	194.3	1
bin	210.1	2
bin	225.9	1
bin	241.7	1
bin	257.5	0
bin	273.3	0
bin	289.1	0
bin	304.9	0
bin	320.7	0
bin	336.5	1
bin	352.3	0
bin	368.1	1
bin	383.9	0
bin	399.7	0
bin	415.5	0
bin	431.3	0
bin	447.1	0
bin	462.9	0
bin	478.7	0
bin	494.5	0
